Circuit: * C:\Users\Sr. Letrado\Desktop\pdfs\clase\4º\Instrumentación y acod. señal\Proyecto-Filtros-Activos\LT1634_Cauer_SK_1.asc

WARNING: Less than two connections to node VIN.  This node is used by V4.
Direct Newton iteration for .op point succeeded.

Date: Wed May 13 11:31:48 2020
Total elapsed time: 0.141 seconds.

tnom = 27
temp = 27
method = trap
totiter = 33
traniter = 0
tranpoints = 0
accept = 0
rejected = 0
matrix size = 40
fillins = 32
solver = Normal
Matrix Compiler1:     236 opcodes
Matrix Compiler2:     340 opcodes
